LAMMPS (30 Aug 2012)
include         in.fedosov-parameters
# DPD example
# Poiseuille flow with parameters from
# J.Chem.Phys 132, 144103 (2010)

# the simulation produces spatially averages
# vy.av (velocity), rho.av (density), simtemp.av (temperature), sxy.av (shear stress)
#echo           both
units		lj
# tolerance
#variable       EPSILON 1e-8
variable        ndim  equal 3
variable        number_density equal 3  # Table 1
variable        xsize equal 33   # p. 4
variable        ysize equal 60
variable        zsize equal 3
variable        kb equal 1.0
variable        T equal 1.0/1 variable        cutoff equal 1.0 # Table 1
variable        cutoff_cons equal 1.0 # eq. (5)
variable        sigma equal 3.0  # Table 1
gamma: 4.5 (must be 4.5)

variable        adpd     equal 25 # Table 1
variable        m_power index  0.25 # Table 1
variable        pmass    equal 1.0 # TODO:

variable gy equal 0.01 # from 0.025 to 0.25  (p.6)

timestep	0.01 # TODO:
# number of timesteps
variable ntime equal 800000
variable gamma equal 1.0
dimension       3
atom_style	bond
pair_style hybrid/overlay lj/cut 0.75 dpd 1 1 928948
communicate	single vel yes

boundary     p p p
lattice fcc 4.0
Lattice spacing in x,y,z = 1 1 1

read_data ./data.in/fluid.groovedE
  orthogonal box = (-100 -1.5 -11.75) to (100 1.5 11.75)
  48996 atoms
  0 bonds

mass		* 1

pair_coeff * * dpd  18.75 4.5
pair_coeff 1 * dpd  9.68  4.5
pair_coeff 2 * dpd  9.68  4.5
pair_coeff 3 * dpd  9.68  4.5

pair_coeff 1 * lj/cut 0.25 0.5 0.5
pair_coeff 2 * lj/cut 0.5 0.5 0.5
pair_coeff 3 * lj/cut 0.5 1.0 1.0

bond_style fene
bond_coeff * 6.0 1.5 0.0 0.0

neighbor	0.5 bin
neigh_modify    delay 0 every 1

group        wall type 1 type 2 type 3
8196 atoms in group wall
group        flow type 4 type 5
40800 atoms in group flow

velocity     wall set 0.0 0.0 0.0
fix	     fwall wall setforce 0.0 0.0 0.0

fix		1 all nve

variable        Nfreq   equal  800000
variable        Nrepeat equal  round(0.9*800000)
fix av_vx flow ave/spatial 1 720000 800000 z center 0.5 x center 0.5 vx file "vx.grooved"
fix av_vz flow ave/spatial 1 720000 800000 z center 0.5 x center 0.5 vz file "vz.grooved"
fix av_rho all ave/spatial 1 720000 800000 z center 0.5 x center 0.5 density/number file "rho.grooved"

# simulation temperature (do not use vy, flow goes in this direction)
variable simtemp atom mass*vz^2
fix av_temp all ave/spatial 1 720000 800000 z center 0.5 x center 0.5 v_simtemp file "simtemp.grooved"

# stresses are in units of pressure*volume must be divided by per-atom
# volume to have units of stress (pressue); components of the stress
# are in the following order xx(1), yy(2), zz(3), xy(4), xz(5), yz(6)
compute stress flow stress/atom
variable stress_pressure atom c_stress[5]*3
variable pressure atom -(c_stress[1]+c_stress[2]+c_stress[3])/3*3
fix av_zx_stress flow ave/spatial 1 720000 800000 z center 0.5 x center 0.5 v_stress_pressure file "szx.grooved"
fix comPressure flow ave/spatial 1 720000 800000 z center 0.5 x center 0.5 v_pressure file "pressure.grooved"

variable fbody atom mass*0.010000000000000000208
fix body_force flow addforce  v_fbody 0.0 0.0
thermo          10000

run		800000
Step Temp E_pair E_mol TotEng Press
0            0    16.356891            0    16.356891    203.86786
Averages over the last 41 of 81 rows, steps 400000 to 800000:
Temp E_pair E_mol TotEng Press
0.899042 16.7581 0 18.1066 205.425
Loop time of 40635.6 on 6 procs for 800000 steps with 48996 atoms

Pair  time (%) = 18158.1 (44.6851)
Bond  time (%) = 318.455 (0.783685)
Neigh time (%) = 3516.96 (8.65488)
Comm  time (%) = 4196.78 (10.3278)
Outpt time (%) = 0.111052 (0.000273287)
Other time (%) = 14445.2 (35.5482)
